/*--------------------------------*- C++ -*----------------------------------*\
| =========                 |                                                 |
| \\      /  F ield         | OpenFOAM: The Open Source CFD Toolbox           |
|  \\    /   O peration     | Version:  1.7.0                                 |
|   \\  /    A nd           | Web:      www.OpenFOAM.com                      |
|    \\/     M anipulation  |                                                 |
\*---------------------------------------------------------------------------*/
FoamFile
{
    version     2.0;
    format      ascii;
    class       dictionary;
    location    "constant";
    object      transportProperties;
}
// * * * * * * * * * * * * * * * * * * * * * * * * * * * * * * * * * * * * * //

phases (liquid vapour);

liquid
{
    transportModel  		Newtonian;
    nu              		nu [ 0 2 -1 0 0 0 0 ] 1.9299e-8;  //mu = 2.8e-4 (Pa s):rho
    rho             		rho [ 1 -3 0 0 0 0 0 ] 958.4;
    kappa			                        0.671;
    Cp				          		 4216;
    hf                  Hf [0 2 -2 0 0 0 0] 2.26e6;
}

vapour
{
    transportModel		Newtonian;
    nu				nu [ 0 2 -1 0 0 0 0 ] 3.082e-5;//2.11e-5;   //mu = 1.26e-5
    rho				rho [ 1 -3 0 0 0 0 0 ] 0.597;
    kappa			 0.025;
    Cp				2030;
    hf        Hf [0 2 -2 0 0 0 0] 0.0;
}

sigma           sigma [ 1 0 -2 0 0 0 0 ] 0.0;

PhaseChangeProperties
{
    model           hardtSimple;
    Tsat             373.15;
    R                461.5;
    sigmaEvap        1.0;
    sigmaCond        1.0;
    DmDot            1e-10;
    hf		     2.26e6;
}

KModel
{
    type gradRDF;
}

deltaModel
{
    type gradAlpha;
}
