/*--------------------------------*- C++ -*----------------------------------*\
| =========                 |                                                 |
| \\      /  F ield         | OpenFOAM: The Open Source CFD Toolbox           |
|  \\    /   O peration     | Version:  1.7.0                                 |
|   \\  /    A nd           | Web:      www.OpenFOAM.com                      |
|    \\/     M anipulation  |                                                 |
\*---------------------------------------------------------------------------*/
FoamFile
{
    version     2.0;
    format      ascii;
    class       dictionary;
    location    "system";
    object      fvSolution;
}
// * * * * * * * * * * * * * * * * * * * * * * * * * * * * * * * * * * * * * //

solvers
{
	//Needed for implicit solve of alpha1 in phase change code
    "alpha.liquid.*"
    {
        nAlphaCorr      1;  //2; dambreak
        nAlphaSubCycles 3;  //1; dambreak
        cAlpha          1;
        alphaApplyPrevCorr no;
        MULESCorr       no;
        nLimiterIter    5;

        isoAdvection            true;
        reconstructionScheme    plicRDF;
        RDFStencil      4;


        solver          smoothSolver;
        smoother        symGaussSeidel;
        tolerance       1e-8;
        relTol          0;
    };
    rho
    {
        solver           diagonal;
        tolerance       1e-7;
        relTol          0.1;
    }

    rhoFinal
    {
        $rho;
        tolerance       1e-7;
        relTol          0;
    }

    p_rgh
    {
        solver          GAMG;
        tolerance       1e-7;
        relTol          0;
        smoother        GaussSeidel;
        maxIter        10;
    };


    "pcorr.*"
    {
        $p_rgh;
        relTol          0;
    };


    "U.*"
    {
        solver          GAMG;
        smoother        symGaussSeidel;
        tolerance       1e-7;
        relTol          0;
    };
    h
   {
       solver           PCG;
       preconditioner   DIC;
       tolerance        1e-06;
       relTol           0.1;
   }

   hFinal
   {
       $h;
       tolerance        1e-06;
       relTol           0;
   }
    /*
    "T.*"
    {
        solver          smoothSolver;
        smoother        symGaussSeidel;
        tolerance       1e-7;
        relTol          0.0;
    }
*/

    "T.*"
    {
        solver          PBiCG;
        preconditioner        DILU;
        tolerance       1e-10;
        relTol          0.0;
    }

    "mDot.*"
    {
        solver          PCG;
        preconditioner  DIC;
        tolerance       1e-10;
        relTol          1e-3;
    }


}

PIMPLE
{
    momentumPredictor no;
    nOuterCorrectors 1;
    nCorrectors     6;
    nNonOrthogonalCorrectors 0;
}

relaxationFactors
{
    "U.*"                      1;
    //"T.*"                      1;
}


// ************************************************************************* //
